3
Step    0: Energy =             0 Cell = 20.0000 0.0000 0.0000 0.0000 20.0000 0.0000 0.0000 0.0000 20.0000
C    5.000   5.000   5.000
O    6.000   5.000   5.000
O    4.000   5.000   5.000
3
Step    1: Energy = -0.9846981083 Cell = 20.0000 0.0000 0.0000 0.0000 20.0000 0.0000 0.0000 0.0000 20.0000
C    4.991   5.000   5.000
O    6.053   5.000   5.000
O    3.956   5.000   5.000
3
Step    2: Energy =   1.189978539 Cell = 20.0000 0.0000 0.0000 0.0000 20.0000 0.0000 0.0000 0.0000 20.0000
C    4.982   5.000   5.000
O    6.106   5.000   5.000
O    3.912   5.000   5.000
3
Step    3: Energy = -0.1219798523 Cell = 20.0000 0.0000 0.0000 0.0000 20.0000 0.0000 0.0000 0.0000 20.0000
C    4.976   5.000   5.000
O    6.143   5.000   5.000
O    3.881   5.000   5.000
3
Step    4: Energy =   2.112267805 Cell = 20.0000 0.0000 0.0000 0.0000 20.0000 0.0000 0.0000 0.0000 20.0000
C    4.972   5.000   5.000
O    6.171   5.000   5.000
O    3.858   5.000   5.000
3
Step    5: Energy =  0.8203716777 Cell = 20.0000 0.0000 0.0000 0.0000 20.0000 0.0000 0.0000 0.0000 20.0000
C    4.973   5.000   5.000
O    6.164   5.000   5.000
O    3.863   5.000   5.000
3
Step    6: Energy =  -1.601135596 Cell = 20.0000 0.0000 0.0000 0.0000 20.0000 0.0000 0.0000 0.0000 20.0000
C    4.972   5.000   5.000
O    6.166   5.000   5.000
O    3.862   5.000   5.000
3
Step    7: Energy = -0.1997547816 Cell = 20.0000 0.0000 0.0000 0.0000 20.0000 0.0000 0.0000 0.0000 20.0000
C    4.972   5.000   5.000
O    6.168   5.000   5.000
O    3.860   5.000   5.000
3
Step    8: Energy =  -1.557370961 Cell = 20.0000 0.0000 0.0000 0.0000 20.0000 0.0000 0.0000 0.0000 20.0000
C    4.972   5.000   5.000
O    6.169   5.000   5.000
O    3.859   5.000   5.000
3
Step    9: Energy = -0.5581148178 Cell = 20.0000 0.0000 0.0000 0.0000 20.0000 0.0000 0.0000 0.0000 20.0000
C    4.972   5.000   5.000
O    6.170   5.000   5.000
O    3.858   5.000   5.000
3
Step   10: Energy =   -1.05548046 Cell = 20.0000 0.0000 0.0000 0.0000 20.0000 0.0000 0.0000 0.0000 20.0000
C    4.972   5.000   5.000
O    6.170   5.000   5.000
O    3.858   5.000   5.000
3
Step   11: Energy =  -1.083422491 Cell = 20.0000 0.0000 0.0000 0.0000 20.0000 0.0000 0.0000 0.0000 20.0000
C    4.972   5.000   5.000
O    6.170   5.000   5.000
O    3.858   5.000   5.000
3
Step   12: Energy =  -1.472197076 Cell = 20.0000 0.0000 0.0000 0.0000 20.0000 0.0000 0.0000 0.0000 20.0000
C    4.972   5.000   5.000
O    6.170   5.000   5.000
O    3.858   5.000   5.000
3
Step   13: Energy = -0.9735573351 Cell = 20.0000 0.0000 0.0000 0.0000 20.0000 0.0000 0.0000 0.0000 20.0000
C    4.972   5.000   5.000
O    6.170   5.000   5.000
O    3.858   5.000   5.000
3
Step   14: Energy =  -1.009058194 Cell = 20.0000 0.0000 0.0000 0.0000 20.0000 0.0000 0.0000 0.0000 20.0000
C    4.972   5.000   5.000
O    6.170   5.000   5.000
O    3.858   5.000   5.000
3
Step   15: Energy =  -1.463156916 Cell = 20.0000 0.0000 0.0000 0.0000 20.0000 0.0000 0.0000 0.0000 20.0000
C    4.972   5.000   5.000
O    6.171   5.000   5.000
O    3.858   5.000   5.000
3
Step   16: Energy =  -0.782813378 Cell = 20.0000 0.0000 0.0000 0.0000 20.0000 0.0000 0.0000 0.0000 20.0000
C    4.972   5.000   5.000
O    6.171   5.000   5.000
O    3.858   5.000   5.000
3
Step   17: Energy = -0.9213150632 Cell = 20.0000 0.0000 0.0000 0.0000 20.0000 0.0000 0.0000 0.0000 20.0000
C    5.159   5.000   5.000
O    6.467   5.000   5.000
O    3.373   5.000   5.000
3
Step   18: Energy =  -1.065019872 Cell = 20.0000 0.0000 0.0000 0.0000 20.0000 0.0000 0.0000 0.0000 20.0000
C    5.067   5.000   5.000
O    6.321   5.000   5.000
O    3.613   5.000   5.000
3
Step   19: Energy =   -1.32620651 Cell = 20.0000 0.0000 0.0000 0.0000 20.0000 0.0000 0.0000 0.0000 20.0000
C    5.019   5.000   5.000
O    6.246   5.000   5.000
O    3.735   5.000   5.000
3
Step   20: Energy =  -1.353703853 Cell = 20.0000 0.0000 0.0000 0.0000 20.0000 0.0000 0.0000 0.0000 20.0000
C    4.995   5.000   5.000
O    6.208   5.000   5.000
O    3.797   5.000   5.000
3
Step   21: Energy =  -1.354783014 Cell = 20.0000 0.0000 0.0000 0.0000 20.0000 0.0000 0.0000 0.0000 20.0000
C    4.986   5.000   5.000
O    6.193   5.000   5.000
O    3.821   5.000   5.000
3
Step   22: Energy =   -1.35516528 Cell = 20.0000 0.0000 0.0000 0.0000 20.0000 0.0000 0.0000 0.0000 20.0000
C    4.990   5.000   5.000
O    6.199   5.000   5.000
O    3.811   5.000   5.000
3
Step   23: Energy =  -1.356409976 Cell = 20.0000 0.0000 0.0000 0.0000 20.0000 0.0000 0.0000 0.0000 20.0000
C    4.993   5.000   5.000
O    6.195   5.000   5.000
O    3.812   5.000   5.000
3
Step   24: Energy =  -1.357442685 Cell = 20.0000 0.0000 0.0000 0.0000 20.0000 0.0000 0.0000 0.0000 20.0000
C    5.002   5.000   5.000
O    6.183   5.000   5.000
O    3.815   5.000   5.000
3
Step   25: Energy =   -1.35763894 Cell = 20.0000 0.0000 0.0000 0.0000 20.0000 0.0000 0.0000 0.0000 20.0000
C    5.000   5.000   5.000
O    6.182   5.000   5.000
O    3.818   5.000   5.000
3
Step   26: Energy =  -1.357759301 Cell = 20.0000 0.0000 0.0000 0.0000 20.0000 0.0000 0.0000 0.0000 20.0000
C    5.000   5.000   5.000
O    6.182   5.000   5.000
O    3.818   5.000   5.000
3
Step   27: Energy =  -1.357756236 Cell = 20.0000 0.0000 0.0000 0.0000 20.0000 0.0000 0.0000 0.0000 20.0000
C    5.000   5.000   5.000
O    6.182   5.000   5.000
O    3.818   5.000   5.000
3
Step   28: Energy =  -1.357754457 Cell = 20.0000 0.0000 0.0000 0.0000 20.0000 0.0000 0.0000 0.0000 20.0000
C    5.000   5.000   5.000
O    6.182   5.000   5.000
O    3.818   5.000   5.000
