13
Step    0: Energy =             0 Cell = 20.0000 0.0000 0.0000 0.0000 20.0000 0.0000 0.0000 0.0000 20.0000
C    2.084   5.047   5.000
C    2.084   6.451   5.000
C    3.300   7.153   5.000
C    4.516   6.451   5.000
C    4.516   5.047   5.000
C    3.300   4.345   5.000
H    1.136   4.498   5.000
H    1.134   7.000   5.000
O    3.300   8.251   5.000
H    3.300   9.251   5.000
H    5.466   7.000   5.000
H    5.466   4.498   5.000
H    3.300   3.248   5.000
13
Step    1: Energy =  -5.487707613 Cell = 20.0000 0.0000 0.0000 0.0000 20.0000 0.0000 0.0000 0.0000 20.0000
C    2.085   5.047   5.000
C    2.081   6.448   5.000
C    3.300   7.112   5.000
C    4.519   6.447   5.000
C    4.516   5.047   5.000
C    3.300   4.345   5.000
H    1.138   4.499   5.000
H    1.136   6.999   5.000
O    3.300   8.304   5.000
H    3.300   9.243   5.000
H    5.464   6.999   5.000
H    5.464   4.499   5.000
H    3.300   3.250   5.000
13
Step    2: Energy =   -5.62908844 Cell = 20.0000 0.0000 0.0000 0.0000 20.0000 0.0000 0.0000 0.0000 20.0000
C    2.085   5.047   5.000
C    2.080   6.446   5.000
C    3.300   7.089   5.000
C    4.520   6.445   5.000
C    4.516   5.046   5.000
C    3.300   4.345   5.000
H    1.139   4.500   5.000
H    1.137   6.999   5.000
O    3.300   8.334   5.000
H    3.300   9.239   5.000
H    5.463   6.999   5.000
H    5.462   4.500   5.000
H    3.300   3.252   5.000
13
Step    3: Energy =   -5.64857494 Cell = 20.0000 0.0000 0.0000 0.0000 20.0000 0.0000 0.0000 0.0000 20.0000
C    2.085   5.047   5.000
C    2.079   6.445   5.000
C    3.300   7.077   5.000
C    4.521   6.444   5.000
C    4.516   5.046   5.000
C    3.300   4.345   5.000
H    1.139   4.500   5.000
H    1.137   6.998   5.000
O    3.300   8.350   5.000
H    3.300   9.236   5.000
H    5.463   6.998   5.000
H    5.462   4.501   5.000
H    3.300   3.253   5.000
13
Step    4: Energy =  -5.687834785 Cell = 20.0000 0.0000 0.0000 0.0000 20.0000 0.0000 0.0000 0.0000 20.0000
C    2.086   5.044   5.000
C    2.055   6.410   5.000
C    3.300   7.014   5.000
C    4.546   6.409   5.000
C    4.515   5.044   5.000
C    3.301   4.344   5.000
H    1.137   4.498   5.000
H    1.138   7.000   5.000
O    3.300   8.376   5.000
H    3.300   9.350   5.000
H    5.462   7.000   5.000
H    5.463   4.499   5.000
H    3.300   3.251   5.000
13
Step    5: Energy =  -5.631254305 Cell = 20.0000 0.0000 0.0000 0.0000 20.0000 0.0000 0.0000 0.0000 20.0000
C    2.078   5.021   5.000
C    2.050   6.403   5.000
C    3.300   7.049   5.000
C    4.550   6.403   5.000
C    4.523   5.021   5.000
C    3.300   4.342   5.000
H    1.136   4.494   5.000
H    1.136   7.001   5.000
O    3.300   8.405   5.000
H    3.300   9.356   5.000
H    5.464   7.001   5.000
H    5.465   4.495   5.000
H    3.300   3.249   5.000
13
Step    6: Energy =  -5.636412855 Cell = 20.0000 0.0000 0.0000 0.0000 20.0000 0.0000 0.0000 0.0000 20.0000
C    2.079   5.012   5.000
C    2.058   6.404   5.000
C    3.300   7.074   5.000
C    4.542   6.404   5.000
C    4.521   5.012   5.000
C    3.300   4.325   5.000
H    1.123   4.480   5.000
H    1.131   7.000   5.000
O    3.300   8.432   5.000
H    3.300   9.373   5.000
H    5.469   7.000   5.000
H    5.478   4.480   5.000
H    3.300   3.245   5.000
13
Step    7: Energy =  -5.631867998 Cell = 20.0000 0.0000 0.0000 0.0000 20.0000 0.0000 0.0000 0.0000 20.0000
C    2.080   5.009   5.000
C    2.061   6.404   5.000
C    3.300   7.083   5.000
C    4.539   6.404   5.000
C    4.521   5.009   5.000
C    3.300   4.319   5.000
H    1.119   4.474   5.000
H    1.130   6.999   5.000
O    3.300   8.442   5.000
H    3.300   9.379   5.000
H    5.470   6.999   5.000
H    5.482   4.475   5.000
H    3.300   3.243   5.000
13
Step    8: Energy =  -5.636717898 Cell = 20.0000 0.0000 0.0000 0.0000 20.0000 0.0000 0.0000 0.0000 20.0000
C    2.075   5.002   5.000
C    2.063   6.410   5.000
C    3.300   7.091   5.000
C    4.537   6.410   5.000
C    4.525   5.002   5.000
C    3.300   4.317   5.000
H    1.116   4.465   5.000
H    1.131   6.992   5.000
O    3.300   8.460   5.000
H    3.300   9.406   5.000
H    5.469   6.992   5.000
H    5.485   4.466   5.000
H    3.300   3.227   5.000
13
Step    9: Energy =  -5.638683699 Cell = 20.0000 0.0000 0.0000 0.0000 20.0000 0.0000 0.0000 0.0000 20.0000
C    2.072   5.007   5.000
C    2.063   6.408   5.000
C    3.300   7.099   5.000
C    4.537   6.408   5.000
C    4.528   5.007   5.000
C    3.300   4.310   5.000
H    1.117   4.458   5.000
H    1.132   6.985   5.000
O    3.300   8.475   5.000
H    3.300   9.428   5.000
H    5.468   6.985   5.000
H    5.483   4.459   5.000
H    3.300   3.212   5.000
13
Step   10: Energy =  -5.632445011 Cell = 20.0000 0.0000 0.0000 0.0000 20.0000 0.0000 0.0000 0.0000 20.0000
C    2.077   5.007   5.000
C    2.065   6.409   5.000
C    3.300   7.100   5.000
C    4.535   6.410   5.000
C    4.524   5.007   5.000
C    3.300   4.308   5.000
H    1.121   4.458   5.000
H    1.130   6.982   5.000
O    3.300   8.477   5.000
H    3.300   9.432   5.000
H    5.470   6.982   5.000
H    5.480   4.458   5.000
H    3.300   3.210   5.000
13
Step   11: Energy =  -5.636159806 Cell = 20.0000 0.0000 0.0000 0.0000 20.0000 0.0000 0.0000 0.0000 20.0000
C    2.084   5.008   5.000
C    2.068   6.412   5.000
C    3.300   7.102   5.000
C    4.532   6.412   5.000
C    4.517   5.008   5.000
C    3.300   4.304   5.000
H    1.126   4.457   5.000
H    1.128   6.977   5.000
O    3.300   8.481   5.000
H    3.300   9.438   5.000
H    5.472   6.977   5.000
H    5.475   4.457   5.000
H    3.300   3.207   5.000
13
Step   12: Energy =  -5.639210097 Cell = 20.0000 0.0000 0.0000 0.0000 20.0000 0.0000 0.0000 0.0000 20.0000
C    2.085   5.009   5.000
C    2.069   6.412   5.000
C    3.300   7.105   5.000
C    4.531   6.412   5.000
C    4.516   5.009   5.000
C    3.300   4.303   5.000
H    1.132   4.459   5.000
H    1.126   6.973   5.000
O    3.300   8.483   5.000
H    3.300   9.438   5.000
H    5.474   6.973   5.000
H    5.468   4.459   5.000
H    3.300   3.206   5.000
13
Step   13: Energy =  -5.640664605 Cell = 20.0000 0.0000 0.0000 0.0000 20.0000 0.0000 0.0000 0.0000 20.0000
C    2.086   5.009   5.000
C    2.071   6.412   5.000
C    3.300   7.108   5.000
C    4.530   6.412   5.000
C    4.515   5.009   5.000
C    3.300   4.301   5.000
H    1.137   4.460   5.000
H    1.125   6.970   5.000
O    3.300   8.484   5.000
H    3.300   9.439   5.000
H    5.475   6.970   5.000
H    5.463   4.460   5.000
H    3.300   3.206   5.000
13
Step   14: Energy =   -5.63619704 Cell = 20.0000 0.0000 0.0000 0.0000 20.0000 0.0000 0.0000 0.0000 20.0000
C    2.088   5.010   5.000
C    2.069   6.411   5.000
C    3.300   7.111   5.000
C    4.531   6.412   5.000
C    4.512   5.010   5.000
C    3.300   4.303   5.000
H    1.139   4.460   5.000
H    1.124   6.966   5.000
O    3.300   8.486   5.000
H    3.300   9.439   5.000
H    5.476   6.966   5.000
H    5.461   4.460   5.000
H    3.300   3.205   5.000
13
Step   15: Energy =  -5.636517565 Cell = 20.0000 0.0000 0.0000 0.0000 20.0000 0.0000 0.0000 0.0000 20.0000
C    2.088   5.010   5.000
C    2.070   6.412   5.000
C    3.300   7.111   5.000
C    4.530   6.412   5.000
C    4.512   5.010   5.000
C    3.300   4.303   5.000
H    1.139   4.460   5.000
H    1.123   6.964   5.000
O    3.300   8.487   5.000
H    3.300   9.440   5.000
H    5.477   6.964   5.000
H    5.462   4.460   5.000
H    3.300   3.206   5.000
13
Step   16: Energy =  -5.638415909 Cell = 20.0000 0.0000 0.0000 0.0000 20.0000 0.0000 0.0000 0.0000 20.0000
C    2.087   5.010   5.000
C    2.070   6.413   5.000
C    3.300   7.111   5.000
C    4.530   6.413   5.000
C    4.513   5.011   5.000
C    3.300   4.303   5.000
H    1.139   4.459   5.000
H    1.121   6.960   5.000
O    3.301   8.488   5.000
H    3.300   9.442   5.000
H    5.479   6.961   5.000
H    5.462   4.460   5.000
H    3.300   3.208   5.000
13
Step   17: Energy =  -5.633564691 Cell = 20.0000 0.0000 0.0000 0.0000 20.0000 0.0000 0.0000 0.0000 20.0000
C    2.087   5.011   5.000
C    2.070   6.413   5.000
C    3.300   7.111   5.000
C    4.530   6.413   5.000
C    4.513   5.011   5.000
C    3.300   4.305   5.000
H    1.139   4.460   5.000
H    1.119   6.957   5.000
O    3.301   8.489   5.000
H    3.300   9.442   5.000
H    5.481   6.958   5.000
H    5.462   4.460   5.000
H    3.300   3.209   5.000
13
Step   18: Energy =  -5.633213327 Cell = 20.0000 0.0000 0.0000 0.0000 20.0000 0.0000 0.0000 0.0000 20.0000
C    2.087   5.012   5.000
C    2.070   6.412   5.000
C    3.300   7.111   5.000
C    4.530   6.413   5.000
C    4.513   5.012   5.000
C    3.300   4.307   5.000
H    1.138   4.460   5.000
H    1.117   6.955   5.000
O    3.301   8.489   5.000
H    3.299   9.443   5.000
H    5.482   6.955   5.000
H    5.462   4.460   5.000
H    3.300   3.211   5.000
13
Step   19: Energy =  -5.636379448 Cell = 20.0000 0.0000 0.0000 0.0000 20.0000 0.0000 0.0000 0.0000 20.0000
C    2.087   5.012   5.000
C    2.069   6.413   5.000
C    3.300   7.112   5.000
C    4.531   6.413   5.000
C    4.513   5.012   5.000
C    3.300   4.307   5.000
H    1.138   4.461   5.000
H    1.116   6.953   5.000
O    3.301   8.489   5.000
H    3.299   9.443   5.000
H    5.484   6.954   5.000
H    5.462   4.461   5.000
H    3.300   3.212   5.000
13
Step   20: Energy =  -5.635548201 Cell = 20.0000 0.0000 0.0000 0.0000 20.0000 0.0000 0.0000 0.0000 20.0000
C    2.087   5.012   5.000
C    2.069   6.413   5.000
C    3.300   7.113   5.000
C    4.531   6.413   5.000
C    4.513   5.012   5.000
C    3.300   4.307   5.000
H    1.137   4.461   5.000
H    1.116   6.953   5.000
O    3.302   8.489   5.000
H    3.299   9.442   5.000
H    5.484   6.953   5.000
H    5.463   4.461   5.000
H    3.300   3.211   5.000
13
Step   21: Energy =  -5.636128565 Cell = 20.0000 0.0000 0.0000 0.0000 20.0000 0.0000 0.0000 0.0000 20.0000
C    2.087   5.012   5.000
C    2.069   6.413   5.000
C    3.300   7.114   5.000
C    4.532   6.413   5.000
C    4.514   5.012   5.000
C    3.300   4.307   5.000
H    1.137   4.461   5.000
H    1.114   6.953   5.000
O    3.303   8.489   5.000
H    3.298   9.442   5.000
H    5.486   6.953   5.000
H    5.464   4.461   5.000
H    3.300   3.211   5.000
13
Step   22: Energy =   -5.63418735 Cell = 20.0000 0.0000 0.0000 0.0000 20.0000 0.0000 0.0000 0.0000 20.0000
C    2.087   5.012   5.000
C    2.068   6.413   5.000
C    3.300   7.114   5.000
C    4.532   6.413   5.000
C    4.514   5.012   5.000
C    3.300   4.307   5.000
H    1.136   4.461   5.000
H    1.113   6.953   5.000
O    3.304   8.489   5.000
H    3.297   9.442   5.000
H    5.486   6.953   5.000
H    5.464   4.462   5.000
H    3.300   3.210   5.000
13
Step   23: Energy =  -5.633146748 Cell = 20.0000 0.0000 0.0000 0.0000 20.0000 0.0000 0.0000 0.0000 20.0000
C    2.087   5.012   5.000
C    2.067   6.414   5.000
C    3.300   7.113   5.000
C    4.531   6.413   5.000
C    4.514   5.012   5.000
C    3.300   4.307   5.000
H    1.136   4.462   5.000
H    1.112   6.953   5.000
O    3.307   8.488   5.000
H    3.295   9.441   5.000
H    5.488   6.953   5.000
H    5.464   4.463   5.000
H    3.300   3.209   5.000
13
Step   24: Energy =  -5.636899649 Cell = 20.0000 0.0000 0.0000 0.0000 20.0000 0.0000 0.0000 0.0000 20.0000
C    2.088   5.013   5.000
C    2.064   6.416   5.000
C    3.301   7.112   5.000
C    4.531   6.414   5.000
C    4.514   5.014   5.000
C    3.299   4.306   5.000
H    1.135   4.467   5.000
H    1.105   6.950   5.000
O    3.321   8.486   5.000
H    3.285   9.440   5.000
H    5.494   6.951   5.000
H    5.465   4.467   5.000
H    3.300   3.205   5.000
13
Step   25: Energy =  -5.635766211 Cell = 20.0000 0.0000 0.0000 0.0000 20.0000 0.0000 0.0000 0.0000 20.0000
C    2.089   5.015   5.000
C    2.059   6.421   5.000
C    3.301   7.110   5.000
C    4.530   6.415   5.000
C    4.515   5.017   5.000
C    3.297   4.305   5.000
H    1.133   4.475   5.000
H    1.092   6.945   5.000
O    3.348   8.481   5.000
H    3.265   9.438   5.000
H    5.506   6.947   5.000
H    5.467   4.475   5.000
H    3.300   3.197   5.000
13
Step   26: Energy =  -5.639768525 Cell = 20.0000 0.0000 0.0000 0.0000 20.0000 0.0000 0.0000 0.0000 20.0000
C    2.091   5.019   5.000
C    2.048   6.430   5.000
C    3.302   7.105   5.000
C    4.529   6.416   5.000
C    4.516   5.024   5.000
C    3.294   4.303   5.000
H    1.129   4.492   5.000
H    1.066   6.935   5.000
O    3.402   8.472   5.000
H    3.226   9.434   5.000
H    5.529   6.938   5.000
H    5.470   4.491   5.000
H    3.300   3.182   5.000
13
Step   27: Energy =  -5.607323851 Cell = 20.0000 0.0000 0.0000 0.0000 20.0000 0.0000 0.0000 0.0000 20.0000
C    2.094   5.025   5.000
C    2.030   6.444   5.000
C    3.303   7.098   5.000
C    4.528   6.419   5.000
C    4.518   5.034   5.000
C    3.289   4.299   5.000
H    1.123   4.519   5.000
H    1.023   6.918   5.000
O    3.490   8.458   5.000
H    3.162   9.428   5.000
H    5.567   6.924   5.000
H    5.476   4.517   5.000
H    3.299   3.157   5.000
13
Step   28: Energy =  -5.686295248 Cell = 20.0000 0.0000 0.0000 0.0000 20.0000 0.0000 0.0000 0.0000 20.0000
C    2.091   5.020   5.000
C    2.046   6.431   5.000
C    3.302   7.105   5.000
C    4.529   6.417   5.000
C    4.516   5.025   5.000
C    3.294   4.302   5.000
H    1.129   4.495   5.000
H    1.061   6.933   5.000
O    3.413   8.471   5.000
H    3.218   9.433   5.000
H    5.534   6.936   5.000
H    5.471   4.494   5.000
H    3.300   3.179   5.000
13
Step   29: Energy =   -5.65538192 Cell = 20.0000 0.0000 0.0000 0.0000 20.0000 0.0000 0.0000 0.0000 20.0000
C    2.092   5.020   5.000
C    2.043   6.433   5.000
C    3.302   7.104   5.000
C    4.529   6.417   5.000
C    4.517   5.026   5.000
C    3.293   4.302   5.000
H    1.128   4.498   5.000
H    1.055   6.930   5.000
O    3.424   8.469   5.000
H    3.210   9.433   5.000
H    5.539   6.934   5.000
H    5.471   4.497   5.000
H    3.300   3.176   5.000
13
Step   30: Energy =   -5.66150606 Cell = 20.0000 0.0000 0.0000 0.0000 20.0000 0.0000 0.0000 0.0000 20.0000
C    2.091   5.020   5.000
C    2.044   6.433   5.000
C    3.302   7.104   5.000
C    4.529   6.417   5.000
C    4.516   5.026   5.000
C    3.293   4.302   5.000
H    1.128   4.497   5.000
H    1.057   6.931   5.000
O    3.420   8.470   5.000
H    3.213   9.433   5.000
H    5.537   6.935   5.000
H    5.471   4.496   5.000
H    3.300   3.177   5.000
13
Step   31: Energy =  -5.613282897 Cell = 20.0000 0.0000 0.0000 0.0000 20.0000 0.0000 0.0000 0.0000 20.0000
C    2.091   5.022   5.000
C    2.032   6.441   5.000
C    3.299   7.111   5.000
C    4.529   6.414   5.000
C    4.519   5.027   5.000
C    3.289   4.298   5.000
H    1.118   4.514   5.000
H    1.035   6.926   5.000
O    3.500   8.467   5.000
H    3.157   9.410   5.000
H    5.552   6.932   5.000
H    5.482   4.513   5.000
H    3.299   3.165   5.000
13
Step   32: Energy =  -5.535805952 Cell = 20.0000 0.0000 0.0000 0.0000 20.0000 0.0000 0.0000 0.0000 20.0000
C    2.091   5.027   5.000
C    2.005   6.461   5.000
C    3.292   7.126   5.000
C    4.530   6.408   5.000
C    4.525   5.030   5.000
C    3.280   4.290   5.000
H    1.095   4.553   5.000
H    0.985   6.914   5.000
O    3.679   8.460   5.000
H    3.032   9.358   5.000
H    5.586   6.924   5.000
H    5.505   4.550   5.000
H    3.297   3.139   5.000
13
Step   33: Energy =   -5.77669672 Cell = 20.0000 0.0000 0.0000 0.0000 20.0000 0.0000 0.0000 0.0000 20.0000
C    2.091   5.023   5.000
C    2.027   6.445   5.000
C    3.297   7.114   5.000
C    4.529   6.413   5.000
C    4.520   5.027   5.000
C    3.287   4.297   5.000
H    1.114   4.521   5.000
H    1.026   6.924   5.000
O    3.533   8.465   5.000
H    3.134   9.400   5.000
H    5.559   6.930   5.000
H    5.486   4.520   5.000
H    3.298   3.160   5.000
13
Step   34: Energy =   -5.66354308 Cell = 20.0000 0.0000 0.0000 0.0000 20.0000 0.0000 0.0000 0.0000 20.0000
C    2.091   5.024   5.000
C    2.024   6.447   5.000
C    3.297   7.115   5.000
C    4.530   6.412   5.000
C    4.521   5.028   5.000
C    3.286   4.296   5.000
H    1.111   4.526   5.000
H    1.020   6.922   5.000
O    3.555   8.465   5.000
H    3.119   9.394   5.000
H    5.563   6.929   5.000
H    5.489   4.524   5.000
H    3.298   3.157   5.000
13
Step   35: Energy =  -5.657338755 Cell = 20.0000 0.0000 0.0000 0.0000 20.0000 0.0000 0.0000 0.0000 20.0000
C    2.091   5.024   5.000
C    2.025   6.447   5.000
C    3.297   7.115   5.000
C    4.530   6.413   5.000
C    4.520   5.028   5.000
C    3.287   4.296   5.000
H    1.112   4.524   5.000
H    1.022   6.923   5.000
O    3.547   8.465   5.000
H    3.124   9.396   5.000
H    5.561   6.930   5.000
H    5.488   4.523   5.000
H    3.298   3.158   5.000
13
Step   36: Energy =  -5.736278243 Cell = 20.0000 0.0000 0.0000 0.0000 20.0000 0.0000 0.0000 0.0000 20.0000
C    2.087   5.025   5.000
C    2.034   6.439   5.000
C    3.290   7.126   5.000
C    4.524   6.404   5.000
C    4.516   5.010   5.000
C    3.287   4.294   5.000
H    1.112   4.518   5.000
H    1.059   6.942   5.000
O    3.583   8.482   5.000
H    3.102   9.358   5.000
H    5.518   6.950   5.000
H    5.493   4.514   5.000
H    3.297   3.177   5.000
13
Step   37: Energy =  -5.755800138 Cell = 20.0000 0.0000 0.0000 0.0000 20.0000 0.0000 0.0000 0.0000 20.0000
C    2.080   5.026   5.000
C    2.048   6.429   5.000
C    3.279   7.142   5.000
C    4.516   6.392   5.000
C    4.509   4.985   5.000
C    3.287   4.292   5.000
H    1.113   4.508   5.000
H    1.113   6.971   5.000
O    3.635   8.507   5.000
H    3.071   9.302   5.000
H    5.455   6.979   5.000
H    5.501   4.502   5.000
H    3.295   3.206   5.000
13
Step   38: Energy =  -5.702302501 Cell = 20.0000 0.0000 0.0000 0.0000 20.0000 0.0000 0.0000 0.0000 20.0000
C    2.087   5.034   5.000
C    2.069   6.447   5.000
C    3.305   7.143   5.000
C    4.504   6.389   5.000
C    4.501   5.001   5.000
C    3.287   4.304   5.000
H    1.128   4.516   5.000
H    1.110   6.967   5.000
O    3.683   8.506   5.000
H    3.026   9.249   5.000
H    5.427   6.964   5.000
H    5.485   4.504   5.000
H    3.291   3.217   5.000
13
Step   39: Energy =  -5.700850879 Cell = 20.0000 0.0000 0.0000 0.0000 20.0000 0.0000 0.0000 0.0000 20.0000
C    2.098   5.046   5.000
C    2.091   6.466   5.000
C    3.341   7.150   5.000
C    4.497   6.387   5.000
C    4.502   5.015   5.000
C    3.287   4.323   5.000
H    1.139   4.513   5.000
H    1.102   6.956   5.000
O    3.672   8.511   5.000
H    3.013   9.204   5.000
H    5.412   6.940   5.000
H    5.463   4.496   5.000
H    3.285   3.234   5.000
13
Step   40: Energy =  -5.697550546 Cell = 20.0000 0.0000 0.0000 0.0000 20.0000 0.0000 0.0000 0.0000 20.0000
C    2.096   5.044   5.000
C    2.086   6.462   5.000
C    3.333   7.148   5.000
C    4.498   6.388   5.000
C    4.501   5.012   5.000
C    3.287   4.318   5.000
H    1.137   4.513   5.000
H    1.104   6.958   5.000
O    3.675   8.510   5.000
H    3.016   9.214   5.000
H    5.415   6.945   5.000
H    5.468   4.498   5.000
H    3.286   3.230   5.000
13
Step   41: Energy =  -5.698594917 Cell = 20.0000 0.0000 0.0000 0.0000 20.0000 0.0000 0.0000 0.0000 20.0000
C    2.095   5.058   5.000
C    2.087   6.481   5.000
C    3.348   7.153   5.000
C    4.504   6.381   5.000
C    4.508   5.007   5.000
C    3.287   4.326   5.000
H    1.129   4.520   5.000
H    1.100   6.968   5.000
O    3.694   8.503   5.000
H    2.979   9.159   5.000
H    5.421   6.953   5.000
H    5.470   4.497   5.000
H    3.281   3.233   5.000
13
Step   42: Energy =  -5.699419518 Cell = 20.0000 0.0000 0.0000 0.0000 20.0000 0.0000 0.0000 0.0000 20.0000
C    2.094   5.067   5.000
C    2.088   6.493   5.000
C    3.356   7.156   5.000
C    4.507   6.378   5.000
C    4.512   5.005   5.000
C    3.287   4.330   5.000
H    1.125   4.523   5.000
H    1.099   6.974   5.000
O    3.706   8.499   5.000
H    2.957   9.127   5.000
H    5.424   6.958   5.000
H    5.471   4.496   5.000
H    3.277   3.235   5.000
13
Step   43: Energy =  -5.707683201 Cell = 20.0000 0.0000 0.0000 0.0000 20.0000 0.0000 0.0000 0.0000 20.0000
C    2.090   5.077   5.000
C    2.087   6.502   5.000
C    3.357   7.153   5.000
C    4.522   6.378   5.000
C    4.513   4.999   5.000
C    3.282   4.331   5.000
H    1.127   4.531   5.000
H    1.100   6.986   5.000
O    3.692   8.497   5.000
H    2.940   9.102   5.000
H    5.443   6.967   5.000
H    5.477   4.485   5.000
H    3.272   3.231   5.000
13
Step   44: Energy =  -5.707822523 Cell = 20.0000 0.0000 0.0000 0.0000 20.0000 0.0000 0.0000 0.0000 20.0000
C    2.084   5.088   5.000
C    2.085   6.513   5.000
C    3.358   7.151   5.000
C    4.540   6.378   5.000
C    4.515   4.994   5.000
C    3.277   4.332   5.000
H    1.129   4.540   5.000
H    1.101   7.000   5.000
O    3.676   8.494   5.000
H    2.921   9.073   5.000
H    5.465   6.977   5.000
H    5.485   4.473   5.000
H    3.265   3.227   5.000
13
Step   45: Energy =  -5.709844759 Cell = 20.0000 0.0000 0.0000 0.0000 20.0000 0.0000 0.0000 0.0000 20.0000
C    2.092   5.105   5.000
C    2.095   6.519   5.000
C    3.374   7.149   5.000
C    4.556   6.383   5.000
C    4.518   4.988   5.000
C    3.267   4.334   5.000
H    1.141   4.552   5.000
H    1.108   7.012   5.000
O    3.669   8.504   5.000
H    2.873   9.036   5.000
H    5.479   6.971   5.000
H    5.477   4.453   5.000
H    3.253   3.232   5.000
13
Step   46: Energy =  -5.710107028 Cell = 20.0000 0.0000 0.0000 0.0000 20.0000 0.0000 0.0000 0.0000 20.0000
C    2.099   5.122   5.000
C    2.106   6.526   5.000
C    3.389   7.146   5.000
C    4.572   6.388   5.000
C    4.521   4.982   5.000
C    3.256   4.337   5.000
H    1.153   4.564   5.000
H    1.115   7.024   5.000
O    3.662   8.515   5.000
H    2.826   9.000   5.000
H    5.493   6.965   5.000
H    5.470   4.434   5.000
H    3.241   3.238   5.000
13
Step   47: Energy =  -5.715714208 Cell = 20.0000 0.0000 0.0000 0.0000 20.0000 0.0000 0.0000 0.0000 20.0000
C    2.101   5.121   5.000
C    2.117   6.528   5.000
C    3.404   7.144   5.000
C    4.580   6.379   5.000
C    4.519   4.984   5.000
C    3.267   4.345   5.000
H    1.159   4.574   5.000
H    1.133   7.035   5.000
O    3.638   8.532   5.000
H    2.786   8.987   5.000
H    5.511   6.956   5.000
H    5.462   4.408   5.000
H    3.226   3.247   5.000
13
Step   48: Energy =  -5.713319687 Cell = 20.0000 0.0000 0.0000 0.0000 20.0000 0.0000 0.0000 0.0000 20.0000
C    2.102   5.121   5.000
C    2.124   6.530   5.000
C    3.413   7.143   5.000
C    4.584   6.375   5.000
C    4.517   4.985   5.000
C    3.272   4.349   5.000
H    1.163   4.579   5.000
H    1.143   7.041   5.000
O    3.625   8.541   5.000
H    2.764   8.979   5.000
H    5.520   6.951   5.000
H    5.457   4.394   5.000
H    3.217   3.252   5.000
13
Step   49: Energy =  -5.718554316 Cell = 20.0000 0.0000 0.0000 0.0000 20.0000 0.0000 0.0000 0.0000 20.0000
C    2.108   5.118   5.000
C    2.131   6.523   5.000
C    3.414   7.142   5.000
C    4.595   6.378   5.000
C    4.531   4.982   5.000
C    3.278   4.352   5.000
H    1.152   4.585   5.000
H    1.163   7.056   5.000
O    3.594   8.545   5.000
H    2.740   8.978   5.000
H    5.538   6.943   5.000
H    5.450   4.379   5.000
H    3.206   3.260   5.000
13
Step   50: Energy =  -5.718413815 Cell = 20.0000 0.0000 0.0000 0.0000 20.0000 0.0000 0.0000 0.0000 20.0000
C    2.111   5.120   5.000
C    2.145   6.525   5.000
C    3.421   7.146   5.000
C    4.612   6.383   5.000
C    4.542   4.981   5.000
C    3.284   4.358   5.000
H    1.141   4.601   5.000
H    1.193   7.081   5.000
O    3.569   8.542   5.000
H    2.688   8.937   5.000
H    5.561   6.935   5.000
H    5.444   4.362   5.000
H    3.191   3.268   5.000
13
Step   51: Energy =  -5.719380403 Cell = 20.0000 0.0000 0.0000 0.0000 20.0000 0.0000 0.0000 0.0000 20.0000
C    2.111   5.118   5.000
C    2.153   6.520   5.000
C    3.421   7.148   5.000
C    4.615   6.391   5.000
C    4.540   4.988   5.000
C    3.286   4.358   5.000
H    1.139   4.609   5.000
H    1.212   7.091   5.000
O    3.552   8.534   5.000
H    2.673   8.929   5.000
H    5.569   6.927   5.000
H    5.440   4.360   5.000
H    3.189   3.267   5.000
13
Step   52: Energy =  -5.719959011 Cell = 20.0000 0.0000 0.0000 0.0000 20.0000 0.0000 0.0000 0.0000 20.0000
C    2.111   5.119   5.000
C    2.159   6.520   5.000
C    3.423   7.149   5.000
C    4.614   6.392   5.000
C    4.536   4.991   5.000
C    3.283   4.356   5.000
H    1.138   4.614   5.000
H    1.223   7.095   5.000
O    3.545   8.532   5.000
H    2.664   8.924   5.000
H    5.575   6.920   5.000
H    5.438   4.363   5.000
H    3.192   3.265   5.000
13
Step   53: Energy =  -5.719581858 Cell = 20.0000 0.0000 0.0000 0.0000 20.0000 0.0000 0.0000 0.0000 20.0000
C    2.111   5.120   5.000
C    2.164   6.519   5.000
C    3.426   7.151   5.000
C    4.614   6.393   5.000
C    4.532   4.994   5.000
C    3.281   4.355   5.000
H    1.138   4.618   5.000
H    1.234   7.099   5.000
O    3.539   8.529   5.000
H    2.654   8.919   5.000
H    5.580   6.913   5.000
H    5.436   4.366   5.000
H    3.194   3.263   5.000
13
Step   54: Energy =   -5.72280872 Cell = 20.0000 0.0000 0.0000 0.0000 20.0000 0.0000 0.0000 0.0000 20.0000
C    2.108   5.118   5.000
C    2.163   6.519   5.000
C    3.426   7.151   5.000
C    4.613   6.392   5.000
C    4.530   4.992   5.000
C    3.278   4.353   5.000
H    1.134   4.617   5.000
H    1.234   7.100   5.000
O    3.539   8.531   5.000
H    2.657   8.924   5.000
H    5.580   6.910   5.000
H    5.439   4.373   5.000
H    3.200   3.261   5.000
13
Step   55: Energy =  -5.721677744 Cell = 20.0000 0.0000 0.0000 0.0000 20.0000 0.0000 0.0000 0.0000 20.0000
C    2.102   5.116   5.000
C    2.163   6.516   5.000
C    3.427   7.149   5.000
C    4.612   6.388   5.000
C    4.524   4.988   5.000
C    3.274   4.350   5.000
H    1.127   4.615   5.000
H    1.235   7.100   5.000
O    3.540   8.534   5.000
H    2.662   8.935   5.000
H    5.580   6.902   5.000
H    5.444   4.389   5.000
H    3.212   3.256   5.000
13
Step   56: Energy =  -5.720986554 Cell = 20.0000 0.0000 0.0000 0.0000 20.0000 0.0000 0.0000 0.0000 20.0000
C    2.102   5.117   5.000
C    2.165   6.519   5.000
C    3.429   7.149   5.000
C    4.615   6.387   5.000
C    4.525   4.989   5.000
C    3.274   4.351   5.000
H    1.125   4.619   5.000
H    1.239   7.105   5.000
O    3.536   8.536   5.000
H    2.652   8.926   5.000
H    5.586   6.897   5.000
H    5.443   4.388   5.000
H    3.212   3.257   5.000
13
Step   57: Energy =  -5.720483182 Cell = 20.0000 0.0000 0.0000 0.0000 20.0000 0.0000 0.0000 0.0000 20.0000
C    2.102   5.119   5.000
C    2.167   6.520   5.000
C    3.430   7.148   5.000
C    4.617   6.387   5.000
C    4.525   4.989   5.000
C    3.274   4.351   5.000
H    1.123   4.621   5.000
H    1.241   7.109   5.000
O    3.534   8.536   5.000
H    2.645   8.921   5.000
H    5.589   6.894   5.000
H    5.443   4.388   5.000
H    3.212   3.257   5.000
13
Step   58: Energy =  -5.721371037 Cell = 20.0000 0.0000 0.0000 0.0000 20.0000 0.0000 0.0000 0.0000 20.0000
C    2.102   5.118   5.000
C    2.167   6.520   5.000
C    3.430   7.149   5.000
C    4.616   6.387   5.000
C    4.524   4.990   5.000
C    3.274   4.351   5.000
H    1.122   4.622   5.000
H    1.242   7.110   5.000
O    3.534   8.537   5.000
H    2.645   8.919   5.000
H    5.590   6.891   5.000
H    5.443   4.390   5.000
H    3.214   3.257   5.000
13
Step   59: Energy =  -5.721908194 Cell = 20.0000 0.0000 0.0000 0.0000 20.0000 0.0000 0.0000 0.0000 20.0000
C    2.102   5.117   5.000
C    2.166   6.519   5.000
C    3.430   7.150   5.000
C    4.615   6.388   5.000
C    4.524   4.992   5.000
C    3.275   4.350   5.000
H    1.120   4.624   5.000
H    1.242   7.113   5.000
O    3.534   8.538   5.000
H    2.646   8.915   5.000
H    5.590   6.885   5.000
H    5.443   4.393   5.000
H    3.216   3.256   5.000
13
Step   60: Energy =  -5.723059265 Cell = 20.0000 0.0000 0.0000 0.0000 20.0000 0.0000 0.0000 0.0000 20.0000
C    2.102   5.118   5.000
C    2.165   6.520   5.000
C    3.430   7.150   5.000
C    4.615   6.388   5.000
C    4.524   4.992   5.000
C    3.274   4.351   5.000
H    1.121   4.625   5.000
H    1.241   7.113   5.000
O    3.535   8.538   5.000
H    2.645   8.913   5.000
H    5.591   6.885   5.000
H    5.443   4.392   5.000
H    3.216   3.256   5.000
13
Step   61: Energy =  -5.723508257 Cell = 20.0000 0.0000 0.0000 0.0000 20.0000 0.0000 0.0000 0.0000 20.0000
C    2.102   5.118   5.000
C    2.165   6.520   5.000
C    3.430   7.150   5.000
C    4.615   6.388   5.000
C    4.524   4.991   5.000
C    3.274   4.351   5.000
H    1.122   4.625   5.000
H    1.241   7.113   5.000
O    3.535   8.538   5.000
H    2.645   8.912   5.000
H    5.591   6.885   5.000
H    5.443   4.392   5.000
H    3.216   3.256   5.000
13
Step   62: Energy =  -5.723929831 Cell = 20.0000 0.0000 0.0000 0.0000 20.0000 0.0000 0.0000 0.0000 20.0000
C    2.102   5.118   5.000
C    2.165   6.520   5.000
C    3.430   7.150   5.000
C    4.615   6.388   5.000
C    4.524   4.991   5.000
C    3.274   4.351   5.000
H    1.122   4.625   5.000
H    1.242   7.114   5.000
O    3.535   8.538   5.000
H    2.644   8.911   5.000
H    5.591   6.885   5.000
H    5.443   4.392   5.000
H    3.216   3.256   5.000
13
Step   63: Energy =  -5.724160555 Cell = 20.0000 0.0000 0.0000 0.0000 20.0000 0.0000 0.0000 0.0000 20.0000
C    2.102   5.118   5.000
C    2.166   6.520   5.000
C    3.430   7.150   5.000
C    4.615   6.388   5.000
C    4.524   4.991   5.000
C    3.274   4.351   5.000
H    1.122   4.625   5.000
H    1.242   7.114   5.000
O    3.535   8.538   5.000
H    2.644   8.911   5.000
H    5.591   6.885   5.000
H    5.443   4.391   5.000
H    3.216   3.256   5.000
13
Step   64: Energy =  -5.724239065 Cell = 20.0000 0.0000 0.0000 0.0000 20.0000 0.0000 0.0000 0.0000 20.0000
C    2.102   5.119   5.000
C    2.166   6.521   5.000
C    3.430   7.150   5.000
C    4.615   6.388   5.000
C    4.524   4.991   5.000
C    3.274   4.351   5.000
H    1.122   4.625   5.000
H    1.242   7.114   5.000
O    3.534   8.538   5.000
H    2.644   8.910   5.000
H    5.591   6.885   5.000
H    5.443   4.391   5.000
H    3.216   3.256   5.000
