3
Step    0: Energy =             0 Cell = 23.0000 0.0000 0.0000 0.0000 23.0000 0.0000 0.0000 0.0000 23.0000
O    7.413   0.238   5.584
H    6.495   0.224   5.278
H    7.508   1.115   5.987
3
Step    1: Energy =  -1.048935526 Cell = 23.0000 0.0000 0.0000 0.0000 23.0000 0.0000 0.0000 0.0000 23.0000
O    7.415   0.238   5.585
H    6.493   0.224   5.277
H    7.508   1.115   5.987
3
Step    2: Energy =  -1.049974627 Cell = 23.0000 0.0000 0.0000 0.0000 23.0000 0.0000 0.0000 0.0000 23.0000
O    7.414   0.238   5.584
H    6.494   0.224   5.278
H    7.508   1.115   5.987
3
Step    3: Energy =  -1.050012572 Cell = 23.0000 0.0000 0.0000 0.0000 23.0000 0.0000 0.0000 0.0000 23.0000
O    7.414   0.238   5.584
H    6.494   0.224   5.278
H    7.508   1.115   5.987
3
Step    4: Energy =  -1.051157828 Cell = 23.0000 0.0000 0.0000 0.0000 23.0000 0.0000 0.0000 0.0000 23.0000
O    7.413   0.239   5.584
H    6.494   0.223   5.277
H    7.509   1.115   5.987
3
Step    5: Energy =  -1.051205394 Cell = 23.0000 0.0000 0.0000 0.0000 23.0000 0.0000 0.0000 0.0000 23.0000
O    7.413   0.239   5.584
H    6.494   0.223   5.277
H    7.509   1.115   5.987
